/batch
/config,noeldb,1     ! force off writing results to database
*get,_wallstrt,active,,time,wall
! ANSYS input file written by Workbench version 2024 R1
! File used for geometry attach: C:\Users\mert_\OneDrive\Masaüstü\Kafes analizi_files\dp0\SYS\DM\SYS.agdb
/title,Kafes analizi--Static Structural (A5)
! ****** Begin Custom Load Command Snippet ******
/COM, ACT Extensions:
/COM,     LSDYNA, 2024.1
/COM,     5f463412-bd3e-484b-87e7-cbc0a665e474, wbex
/COM,/COM,     ANSYSMotion, 2024.1
/COM,     20180725-3f81-49eb-9f31-41364844c769, wbex
/COM,
! ****** End   Custom Load Command Snippet ******

/com,--- Data in consistent NMM units. See Solving Units in the help system for more information.
/units,MPA
/nopr
/wb,file,start              !  signify a WB generated input file
/prep7
! Turn off shape checking because checks already performed inside WB mesher.
! See help system for more information.
SHPP,OFF,,NOWARN
/nolist
etcon,set             ! allow ANSYS to choose best KEYOP's for 180x elements, resets any applicable keyopt to MAPDL defaults
/com,*********** Nodes for the whole assembly ***********
nblock,3,,3224
(1i9,3e20.9e3)
        1    -0.000000000E+00     0.000000000E+00     0.000000000E+00
        2     1.000000000E+03     0.000000000E+00     0.000000000E+00
        3     1.000000000E+01     0.000000000E+00     0.000000000E+00
        4     2.000000000E+01     0.000000000E+00     0.000000000E+00
        5     3.000000000E+01     0.000000000E+00     0.000000000E+00
        6     4.000000000E+01     0.000000000E+00     0.000000000E+00
        7     5.000000000E+01     0.000000000E+00     0.000000000E+00
        8     6.000000000E+01     0.000000000E+00     0.000000000E+00
        9     7.000000000E+01     0.000000000E+00     0.000000000E+00
       10     8.000000000E+01     0.000000000E+00     0.000000000E+00
       11     9.000000000E+01     0.000000000E+00     0.000000000E+00
       12     1.000000000E+02     0.000000000E+00     0.000000000E+00
       13     1.100000000E+02     0.000000000E+00     0.000000000E+00
       14     1.200000000E+02     0.000000000E+00     0.000000000E+00
       15     1.300000000E+02     0.000000000E+00     0.000000000E+00
       16     1.400000000E+02     0.000000000E+00     0.000000000E+00
       17     1.500000000E+02     0.000000000E+00     0.000000000E+00
       18     1.600000000E+02     0.000000000E+00     0.000000000E+00
       19     1.700000000E+02     0.000000000E+00     0.000000000E+00
       20     1.800000000E+02     0.000000000E+00     0.000000000E+00
! ... 2912 like lines cut
/wb,elem,start            !  set before creation of elements
/com,*********** Elements for Body 1 "Line Body" ***********
et,1,188
keyo,1,3,2
eblock,19,solid,,1468
(19i9)
        1        1        1        1        0        0        0        0        3        0        1        1        3     1464
        1        1        1        1        0        0        0        0        3        0        2        3        4     1465
        1        1        1        1        0        0        0        0        3        0        3        4        5     1466
        1        1        1        1        0        0        0        0        3        0        4        5        6     1467
        1        1        1        1        0        0        0        0        3        0        5        6        7     1468
        1        1        1        1        0        0        0        0        3        0        6        7        8     1469
        1        1        1        1        0        0        0        0        3        0        7        8        9     1470
        1        1        1        1        0        0        0        0        3        0        8        9       10     1471
        1        1        1        1        0        0        0        0        3        0        9       10       11     1472
        1        1        1        1        0        0        0        0        3        0       10       11       12     1473
        1        1        1        1        0        0        0        0        3        0       11       12       13     1474
        1        1        1        1        0        0        0        0        3        0       12       13       14     1475
        1        1        1        1        0        0        0        0        3        0       13       14       15     1476
        1        1        1        1        0        0        0        0        3        0       14       15       16     1477
        1        1        1        1        0        0        0        0        3        0       15       16       17     1478
        1        1        1        1        0        0        0        0        3        0       16       17       18     1479
        1        1        1        1        0        0        0        0        3        0       17       18       19     1480
        1        1        1        1        0        0        0        0        3        0       18       19       20     1481
        1        1        1        1        0        0        0        0        3        0       19       20       21     1482
        1        1        1        1        0        0        0        0        3        0       20       21       22     1483
! ... 1449 like lines cut
!Material Id = {B57E5706-D861-44B2-B472-7D158C4CF3FD}
/wb,elem,end               !  done creating elements
/com,*********** Send User Defined Coordinate System(s) ***********
csys,0
toffst,273.15,  ! Temperature offset from absolute zero
/com,*********** Set Reference Temperature ***********
tref,22.
/wb,mat,start              !  starting to send materials
/com,*********** Send Materials ***********
Temperature = 'TEMP' ! Temperature
MP,DENS,1,7.85e-09,	! tonne mm^-3
MP,ALPX,1,1.2e-05,	! C^-1
MP,C,1,434000000,	! mm^2 s^-2 C^-1
MP,KXX,1,60.5,	! tonne mm s^-3 C^-1
MP,RSVX,1,0.00017,	! ohm mm
MP,EX,1,200000,	! tonne s^-2 mm^-1
MP,NUXY,1,0.3,
MP,MURX,1,10000,
MP,UVID,1,a8ab43c7-e53f-4116-a600-2fd5b79b3588
MP,UMID,1,59002a79-71c2-428e-906b-55d7dbee100e

/wb,mat,end                !  done sending materials
/com,*********** Send Beam Properties ***********
SECTYPE,1,BEAM,CTUB
SECDATA,20.,40.
secoffset,cent

!************************* Model Summary ********************
!Line Body,	Structural Steel,	matid,	1
!************************* End Model Summary ********************
! get the diagonal of the bounding box. Needed later for other things
*get,_xmin,node,,mnloc,x
*get,_ymin,node,,mnloc,y
*get,_zmin,node,,mnloc,z
*get,_xmax,node,,mxloc,x
*get,_ymax,node,,mxloc,y
*get,_zmax,node,,mxloc,z
_ASMDIAG=(_xmax-_xmin)*(_xmax-_xmin)+(_ymax-_ymin)*(_ymax-_ymin)+(_zmax-_zmin)*(_zmax-_zmin)
_ASMDIAG=SQRT(_ASMDIAG)
/wb,contact,start          !  starting to send contact
/wb,contact,end            !  done creating contacts
/golist
/wb,load,start             !  starting to send loads
/com,*********** Fixed Supports ***********
CMBLOCK,_FIXEDSU,NODE,        2
(8i10)
       643      1223
cmsel,s,_FIXEDSU
d,all,all
nsel,all
/com,*********** Define Vertex Force Using Follower Elements ***********
et,2,201
keyo,2,1,1           ! Keep the direction constant
keyo,2,2,1           ! Apply Forces only, not moment
mat,2
real,2
type,2
en,1469,102
r,2
rmod,2,1,1.0,              ! FX
mat,3
real,3
type,2
en,1470,102
r,3
rmod,3,2,1.0,              ! FY
mat,4
real,4
type,2
en,1471,102
r,4
rmod,4,3,1.0,              ! FZ
/com,*********** Define Vertex Force Using Follower Elements ***********
et,5,201
keyo,5,1,1           ! Keep the direction constant
keyo,5,2,1           ! Apply Forces only, not moment
mat,5
real,5
type,5
en,1472,1
r,5
rmod,5,1,1.0,              ! FX
mat,6
real,6
type,5
en,1473,1
r,6
rmod,6,2,1.0,              ! FY
mat,7
real,7
type,5
en,1474,1
r,7
rmod,7,3,1.0,              ! FZ
/com,*********** Define Vertex Force Using Follower Elements ***********
et,8,201
keyo,8,1,1           ! Keep the direction constant
keyo,8,2,1           ! Apply Forces only, not moment
mat,8
real,8
type,8
en,1475,2
r,8
rmod,8,1,1.0,              ! FX
mat,9
real,9
type,8
en,1476,2
r,9
rmod,9,2,1.0,              ! FY
mat,10
real,10
type,8
en,1477,2
r,10
rmod,10,3,1.0,              ! FZ
/gst,on,on
fini
*get,_numnode,node,0,count
*get,_numelem,elem,0,count
*get, _MAXELEMNUM, elem, 0, NUM, MAX
*get, _MAXNODENUM, node, 0, NUM, MAX
*get, _MAXELEMTYPE, etyp, 0, NUM, MAX
*get, _MAXREALCONST, rcon, 0, NUM, MAX
/go
/wb,load,end               !  done creating loads
/com,--- Number of total nodes = %_numnode%
/com,--- Number of contact elements = 0
/com,--- Number of spring elements = 0
/com,--- Number of bearing elements = 0
/com,--- Number of solid elements = 1468
/com,--- Number of condensed parts = 0
/com,--- Number of total elements = %_numelem%
*get,_wallbsol,active,,time,wall
/com,****************************************************************************
/com,*************************    SOLUTION       ********************************
/com,****************************************************************************
/solu
antype,0                   ! static analysis
_thickRatio=  0     ! Ratio of thick parts in the model
eqsl,sparse,,,,,1
cntr,print,1               ! print out contact info and also make no initial contact an error
cncheck,dmp		!	Enable program controlled contact splitting for distributed memory parallel run
dmpoption,emat,no             ! Don't combine emat file for DANSYS
dmpoption,esav,no             ! Don't combine esav file for DANSYS
nldiag,cont,iter           ! print out contact info each equilibrium iteration
rescontrol,,none                 ! Do not keep any restart files
/com,****************************************************
/com,******************* SOLVE FOR LS 1 OF 1 ****************
esel,s,real,,2
sfe,all,1,pres,1,6.66133814775093e-012
esel,s,real,,3
sfe,all,1,pres,1,-30000.
esel,s,real,,4
sfe,all,1,pres,1,0.
esel,s,real,,5
sfe,all,1,pres,1,0.
esel,s,real,,6
sfe,all,1,pres,1,-30000.
esel,s,real,,7
sfe,all,1,pres,1,0.
esel,s,real,,8
sfe,all,1,pres,1,0.
esel,s,real,,9
sfe,all,1,pres,1,-30000.
esel,s,real,,10
sfe,all,1,pres,1,0.
esel,all
/nopr
/gopr
nsub,1,1,1
time,1.
outres,erase
outres,all,none
outres,nsol,all,
outres,rsol,all
outres,eangl,all
outres,etmp,all
outres,veng,all
outres,strs,all,
outres,epel,all,
outres,eppl,all,
outres,cont,all,
/nopr
esel,s,type,,1
cm,_elmisc,elem
esel,all
/gopr
outres,misc,all,_elmisc
! *********** WB SOLVE COMMAND ***********
! check interactive state
*get,ANSINTER_,active,,int
*if,ANSINTER_,ne,0,then
/eof
*endif
solve
/com *************** Write FE CONNECTORS ********* 
CEWRITE,file,ce,,INTE
/com,****************************************************
/com,*************** FINISHED SOLVE FOR LS 1 *************
*get,_wallasol,active,,time,wall
/nopr
*get,_numnode,node,0,count
*get,_numelem,elem,0,count
*get, _MAXELEMNUM, elem, 0, NUM, MAX
*get, _MAXNODENUM, node, 0, NUM, MAX,,,INTERNAL
*get, _MAXELEMTYPE, etyp, 0, NUM, MAX
*get, _MAXREALCONST, rcon, 0, NUM, MAX
*get,_NSOLTHREADS,active,0,ntfs
*get,_NSOLPROCESSES,active,0,npfs
/gopr
/post1
xmlo,ENCODING,ISO-8859-1
xmlo,parm
/xml,parm,xml
fini
/gopr
*get,_walldone,active,,time,wall
_preptime=(_wallbsol-_wallstrt)*3600
_solvtime=(_wallasol-_wallbsol)*3600
_posttime=(_walldone-_wallasol)*3600
_totaltim=(_walldone-_wallstrt)*3600
*get,_dlbratio,active,0,solu,dlbr
*get,_combtime,active,0,solu,comb
*get,_ssmode,active,0,solu,ssmm
*get,_ndofs,active,0,solu,ndof
*get,_sol_end_time,active,0,set,time
*if,_sol_end_time,eq,1.000000,then
/fclean				!clean distributed files
*endif
/com,--- Total number of nodes = %_numnode%
/com,--- Total number of elements = %_numelem%
/com,--- Element load balance ratio = %_dlbratio%
/com,--- Time to combine distributed files = %_combtime%
/com,--- Sparse memory mode = %_ssmode%
/com,--- Number of DOF = %_ndofs%
/wb,file,end               ! done with WB generated input
