/batch
/config,noeldb,1     ! force off writing results to database
*get,_wallstrt,active,,time,wall
! ANSYS input file written by Workbench version 2024 R1
! File used for geometry attach: C:\Users\mert_\OneDrive\Masaüstü\Ansys Dersleri\Doğal Titreşim analizi_files\dp0\Geom\DM\Geom.agdb
/title,Do_al Titre_im analizi--Static Structural (C5)
! ****** Begin Custom Load Command Snippet ******
/COM, ACT Extensions:
/COM,     LSDYNA, 2024.1
/COM,     5f463412-bd3e-484b-87e7-cbc0a665e474, wbex
/COM,/COM,     ANSYSMotion, 2024.1
/COM,     20180725-3f81-49eb-9f31-41364844c769, wbex
/COM,
! ****** End   Custom Load Command Snippet ******

/com,--- Data in consistent NMM units. See Solving Units in the help system for more information.
/units,MPA
/nopr
/wb,file,start              !  signify a WB generated input file
/prep7
! Turn off shape checking because checks already performed inside WB mesher.
! See help system for more information.
SHPP,OFF,,NOWARN
/nolist
etcon,set             ! allow ANSYS to choose best KEYOP's for 180x elements, resets any applicable keyopt to MAPDL defaults
/com,*********** Nodes for the whole assembly ***********
nblock,3,,6904
(1i9,3e20.9e3)
        1     5.950000000E+02     5.000000000E+00     5.000000000E+00
        2     5.900000000E+02     5.000000000E+00     5.000000000E+00
        3     5.850000000E+02     5.000000000E+00     5.000000000E+00
        4     5.800000000E+02     5.000000000E+00     5.000000000E+00
        5     5.750000000E+02     5.000000000E+00     5.000000000E+00
        6     5.700000000E+02     5.000000000E+00     5.000000000E+00
        7     5.650000000E+02     5.000000000E+00     5.000000000E+00
        8     5.600000000E+02     5.000000000E+00     5.000000000E+00
        9     5.550000000E+02     5.000000000E+00     5.000000000E+00
       10     5.500000000E+02     5.000000000E+00     5.000000000E+00
       11     5.450000000E+02     5.000000000E+00     5.000000000E+00
       12     5.400000000E+02     5.000000000E+00     5.000000000E+00
       13     5.350000000E+02     5.000000000E+00     5.000000000E+00
       14     5.300000000E+02     5.000000000E+00     5.000000000E+00
       15     5.250000000E+02     5.000000000E+00     5.000000000E+00
       16     5.200000000E+02     5.000000000E+00     5.000000000E+00
       17     5.150000000E+02     5.000000000E+00     5.000000000E+00
       18     5.100000000E+02     5.000000000E+00     5.000000000E+00
       19     5.050000000E+02     5.000000000E+00     5.000000000E+00
       20     5.000000000E+02     5.000000000E+00     5.000000000E+00
! ... 6258 like lines cut
/wb,elem,start            !  set before creation of elements
/com,*********** Elements for Body 1 "Solid" ***********
et,1,186
keyo,1,2,1          ! set full integration on SOLID186
eblock,19,solid,,960
(19i9)
        1        1        1        1        0        0        0        0       20        0        1        1     1572     1569     1448      714     1573     1568     1567
     1821     5910     5788     1820     4201     5909     5907     4200     1818     5916     5908     5787
        1        1        1        1        0        0        0        0       20        0        2        1     1448     1569     1572      715     1196     1195     1194
     1820     5788     5910     1821     4205     5285     5283     4204     1819     5288     5286     5284
        1        1        1        1        0        0        0        0       20        0        3        1      120     1571     1572      714      595     1574     1573
     1817     2416     5914     1821     3961     3962     5917     4201     1818     2414     5915     5916
        1        1        1        1        0        0        0        0       20        0        4        1     1572     1571      120      715     1194     1193      834
     1821     5914     2416     1817     4204     5281     4562     4203     1819     5284     5282     2415
        1        1        1        1        0        0        0        0       20        0        5      120      239     1570     1571      595      476     1575     1574
     2413     2892     5911     2416     3721     3722     5918     3962     2414     2890     5912     5915
        1        1        1        1        0        0        0        0       20        0        6      120     1571     1570      239      834     1193     1192      953
     2416     5911     2892     2413     4562     5279     4801     4561     2415     5282     5280     2891
        1        1        1        1        0        0        0        0       20        0        7      239     1578     1577     1570      476     1697     1576     1575
     2893     5922     5913     2892     3723     5921     5919     3722     2890     5924     5920     5912
        1        1        1        1        0        0        0        0       20        0        8      239     1570     1577     1578      953     1192     1191     1190
     2892     5913     5922     2893     4801     5277     5275     4800     2891     5280     5278     5276
        1        1        1        1        0        0        0        0       20        0        9        1     1448     1447        2      714     1567     1566      713
     1820     5785     1826     1816     4200     5906     4199     4198     1818     5787     5786     1824
        1        1        1        1        0        0        0        0       20        0       10        1        2     1447     1448      715      716     1197     1196
     1816     1826     5785     1820     4202     4208     5287     4205     1819     1825     5290     5288
! ... 1901 like lines cut
!Material Id = {669814E7-0A4D-4BB7-85CA-0458AA675F84}
/wb,elem,end               !  done creating elements
/com,*********** Send User Defined Coordinate System(s) ***********
csys,0
toffst,273.15,  ! Temperature offset from absolute zero
/com,*********** Set Reference Temperature ***********
tref,22.
/wb,mat,start              !  starting to send materials
/com,*********** Send Materials ***********
Temperature = 'TEMP' ! Temperature
MP,DENS,1,7.85e-09,	! tonne mm^-3
MP,ALPX,1,1.2e-05,	! C^-1
MP,C,1,434000000,	! mm^2 s^-2 C^-1
MP,KXX,1,60.5,	! tonne mm s^-3 C^-1
MP,RSVX,1,0.00017,	! ohm mm
MP,EX,1,200000,	! tonne s^-2 mm^-1
MP,NUXY,1,0.3,
MP,MURX,1,10000,
MP,UVID,1,ab072c97-27f7-4341-ad10-c59752b084cc
MP,UMID,1,59002a79-71c2-428e-906b-55d7dbee100e

/wb,mat,end                !  done sending materials
!************************* Model Summary ********************
!Solid,	Structural Steel,	matid,	1
!************************* End Model Summary ********************
! get the diagonal of the bounding box. Needed later for other things
*get,_xmin,node,,mnloc,x
*get,_ymin,node,,mnloc,y
*get,_zmin,node,,mnloc,z
*get,_xmax,node,,mxloc,x
*get,_ymax,node,,mxloc,y
*get,_zmax,node,,mxloc,z
_ASMDIAG=(_xmax-_xmin)*(_xmax-_xmin)+(_ymax-_ymin)*(_ymax-_ymin)+(_zmax-_zmin)*(_zmax-_zmin)
_ASMDIAG=SQRT(_ASMDIAG)
/wb,contact,start          !  starting to send contact
/wb,contact,end            !  done creating contacts
/golist
/wb,load,start             !  starting to send loads
CMBLOCK,_CM29_FIXEDSU,NODE,       37
(8i10)
      1315      1316      1317      1318      1319      1320      1321      1322
      1323      1324      1325      1326      1327      1328      1329      5525
      5526      5527      5528      5529      5530      5531      5532      5533
      5534      5535      5536      5537      5538      5539      5540      5541
      5542      5543      5544      5545      5548
/com,*********** Fixed Supports ***********
CMBLOCK,_FIXEDSU,NODE,       37
(8i10)
      1315      1316      1317      1318      1319      1320      1321      1322
      1323      1324      1325      1326      1327      1328      1329      5525
      5526      5527      5528      5529      5530      5531      5532      5533
      5534      5535      5536      5537      5538      5539      5540      5541
      5542      5543      5544      5545      5548
cmsel,s,_FIXEDSU
d,all,all
nsel,all
/com,*********** Define Force Using Surface Effect Elements ***********
local,12,0,0.,0.,0.,0.,0.,0.
csys,0
et,2,154
mat,2
eblock,10,,,8
(15i9)
     2417        2        2        2       12     1577     1570     1575     1576     5913     5912     5919     5920
     2418        2        2        2       12     1191     1192     1570     1577     5277     5280     5913     5278
     2419        2        2        2       12     1570     1571     1574     1575     5911     5915     5918     5912
     2420        2        2        2       12     1192     1193     1571     1570     5279     5282     5911     5280
     2421        2        2        2       12     1571     1572     1573     1574     5914     5916     5917     5915
     2422        2        2        2       12     1193     1194     1572     1571     5281     5284     5914     5282
     2423        2        2        2       12     1572     1569     1568     1573     5910     5908     5909     5916
     2424        2        2        2       12     1194     1195     1569     1572     5283     5286     5910     5284
-1
esel,s,type,,2
keyop,2,2,1                ! Apply load in local coordinate system
keyop,2,7,1                ! Use original area so load is constant in large deformation
esel,all
/gst,on,on
fini
*get,_numnode,node,0,count
*get,_numelem,elem,0,count
*get, _MAXELEMNUM, elem, 0, NUM, MAX
*get, _MAXNODENUM, node, 0, NUM, MAX
*get, _MAXELEMTYPE, etyp, 0, NUM, MAX
*get, _MAXREALCONST, rcon, 0, NUM, MAX
/go
/wb,load,end               !  done creating loads
/com,--- Number of total nodes = %_numnode%
/com,--- Number of contact elements = 8
/com,--- Number of spring elements = 0
/com,--- Number of bearing elements = 0
/com,--- Number of solid elements = 960
/com,--- Number of condensed parts = 0
/com,--- Number of total elements = %_numelem%
*get,_wallbsol,active,,time,wall
/com,****************************************************************************
/com,*************************    SOLUTION       ********************************
/com,****************************************************************************
/solu
antype,0                   ! static analysis
_thickRatio=  0     ! Ratio of thick parts in the model
eqsl,sparse,,,,,1
cntr,print,1               ! print out contact info and also make no initial contact an error
nldiag,cont,iter           ! print out contact info each equilibrium iteration
rescontrol,linear,last           ! Turn on restart files due to future eigen analysis intent
/com,****************************************************
/com,******************* SOLVE FOR LS 1 OF 1 ****************
esel,s,type,,2
nsle
sfe,all,1,pres,1,-12.5000000000009
sfe,all,2,pres,1,0.
sfe,all,3,pres,1,0.
nsel,all
esel,all
/nopr
/gopr
nsub,1,1,1
time,1.
outres,erase
outres,all,none
outres,nsol,all,
outres,rsol,all
outres,eangl,all
outres,etmp,all
outres,veng,all
outres,strs,all,
outres,epel,all,
outres,eppl,all,
outres,cont,all,
! *********** WB SOLVE COMMAND ***********
! check interactive state
*get,ANSINTER_,active,,int
*if,ANSINTER_,ne,0,then
/eof
*endif
solve
/com *************** Write FE CONNECTORS ********* 
CEWRITE,file,ce,,INTE
/com,****************************************************
/com,*************** FINISHED SOLVE FOR LS 1 *************
*get,_wallasol,active,,time,wall
/nopr
*get,_numnode,node,0,count
*get,_numelem,elem,0,count
*get, _MAXELEMNUM, elem, 0, NUM, MAX
*get, _MAXNODENUM, node, 0, NUM, MAX,,,INTERNAL
*get, _MAXELEMTYPE, etyp, 0, NUM, MAX
*get, _MAXREALCONST, rcon, 0, NUM, MAX
*get,_NSOLTHREADS,active,0,ntfs
*get,_NSOLPROCESSES,active,0,npfs
/gopr
/post1
xmlo,ENCODING,ISO-8859-1
xmlo,parm
/xml,parm,xml
fini
/gopr
*get,_walldone,active,,time,wall
_preptime=(_wallbsol-_wallstrt)*3600
_solvtime=(_wallasol-_wallbsol)*3600
_posttime=(_walldone-_wallasol)*3600
_totaltim=(_walldone-_wallstrt)*3600
*get,_dlbratio,active,0,solu,dlbr
*get,_combtime,active,0,solu,comb
*get,_ssmode,active,0,solu,ssmm
*get,_ndofs,active,0,solu,ndof
/com,--- Total number of nodes = %_numnode%
/com,--- Total number of elements = %_numelem%
/com,--- Element load balance ratio = %_dlbratio%
/com,--- Time to combine distributed files = %_combtime%
/com,--- Sparse memory mode = %_ssmode%
/com,--- Number of DOF = %_ndofs%
/wb,file,end               ! done with WB generated input
