/batch
/config,noeldb,1     ! force off writing results to database
*get,_wallstrt,active,,time,wall
! ANSYS input file written by Workbench version 2024 R1
! File used for geometry attach: C:\Users\mert_\AppData\Local\Temp\WB_Mert_17988_2\wbnew_files\dp0\SYS\DM\SYS.agdb
/title,wbnew--Static Structural (A5)
! ****** Begin Custom Load Command Snippet ******
/COM, ACT Extensions:
/COM,     LSDYNA, 2024.1
/COM,     5f463412-bd3e-484b-87e7-cbc0a665e474, wbex
/COM,/COM,     ANSYSMotion, 2024.1
/COM,     20180725-3f81-49eb-9f31-41364844c769, wbex
/COM,
! ****** End   Custom Load Command Snippet ******
*DIM,_wb_ProjectScratch_dir,string,248
_wb_ProjectScratch_dir(1) = 'C:\Users\mert_\AppData\Local\Temp\WB_Mert_17988_2\_ProjectScratch\Scr65DA\'
*DIM,_wb_SolverFiles_dir,string,248
_wb_SolverFiles_dir(1) = 'C:\Users\mert_\AppData\Local\Temp\WB_Mert_17988_2\wbnew_files\dp0\SYS\MECH\'
*DIM,_wb_userfiles_dir,string,248
_wb_userfiles_dir(1) = 'C:\Users\mert_\AppData\Local\Temp\WB_Mert_17988_2\wbnew_files\user_files\'
/com,--- Data in consistent NMM units. See Solving Units in the help system for more information.
/units,MPA
/nopr
/wb,file,start              !  signify a WB generated input file
/prep7
! Turn off shape checking because checks already performed inside WB mesher.
! See help system for more information.
SHPP,OFF,,NOWARN
/nolist
etcon,set             ! allow ANSYS to choose best KEYOP's for 180x elements, resets any applicable keyopt to MAPDL defaults
/com,*********** Nodes for the whole assembly ***********
nblock,3,,441
(1i9,3e20.9e3)
        1     5.000000000E+02     0.000000000E+00     0.000000000E+00
        2     1.000000000E+03     0.000000000E+00     0.000000000E+00
        3     5.050000000E+02     0.000000000E+00     0.000000000E+00
        4     5.100000000E+02     0.000000000E+00     0.000000000E+00
        5     5.150000000E+02     0.000000000E+00     0.000000000E+00
        6     5.200000000E+02     0.000000000E+00     0.000000000E+00
        7     5.250000000E+02     0.000000000E+00     0.000000000E+00
        8     5.300000000E+02     0.000000000E+00     0.000000000E+00
        9     5.350000000E+02     0.000000000E+00     0.000000000E+00
       10     5.400000000E+02     0.000000000E+00     0.000000000E+00
       11     5.450000000E+02     0.000000000E+00     0.000000000E+00
       12     5.500000000E+02     0.000000000E+00     0.000000000E+00
       13     5.550000000E+02     0.000000000E+00     0.000000000E+00
       14     5.600000000E+02     0.000000000E+00     0.000000000E+00
       15     5.650000000E+02     0.000000000E+00     0.000000000E+00
       16     5.700000000E+02     0.000000000E+00     0.000000000E+00
       17     5.750000000E+02     0.000000000E+00     0.000000000E+00
       18     5.800000000E+02     0.000000000E+00     0.000000000E+00
       19     5.850000000E+02     0.000000000E+00     0.000000000E+00
       20     5.900000000E+02     0.000000000E+00     0.000000000E+00
! ... 382 like lines cut
/wb,elem,start            !  set before creation of elements
/com,*********** Elements for Body 1 "Line Body" ***********
et,1,188
keyo,1,3,2
eblock,19,solid,,200
(19i9)
        1        1        1        1        0        0        0        0        3        0        1        1        3      202
        1        1        1        1        0        0        0        0        3        0        2        3        4      203
        1        1        1        1        0        0        0        0        3        0        3        4        5      204
        1        1        1        1        0        0        0        0        3        0        4        5        6      205
        1        1        1        1        0        0        0        0        3        0        5        6        7      206
        1        1        1        1        0        0        0        0        3        0        6        7        8      207
        1        1        1        1        0        0        0        0        3        0        7        8        9      208
        1        1        1        1        0        0        0        0        3        0        8        9       10      209
        1        1        1        1        0        0        0        0        3        0        9       10       11      210
        1        1        1        1        0        0        0        0        3        0       10       11       12      211
        1        1        1        1        0        0        0        0        3        0       11       12       13      212
        1        1        1        1        0        0        0        0        3        0       12       13       14      213
        1        1        1        1        0        0        0        0        3        0       13       14       15      214
        1        1        1        1        0        0        0        0        3        0       14       15       16      215
        1        1        1        1        0        0        0        0        3        0       15       16       17      216
        1        1        1        1        0        0        0        0        3        0       16       17       18      217
        1        1        1        1        0        0        0        0        3        0       17       18       19      218
        1        1        1        1        0        0        0        0        3        0       18       19       20      219
        1        1        1        1        0        0        0        0        3        0       19       20       21      220
        1        1        1        1        0        0        0        0        3        0       20       21       22      221
! ... 181 like lines cut
!Material Id = {96D2F748-ADA1-453A-9C86-B27603EFC038}
/wb,elem,end               !  done creating elements
/com,*********** Send User Defined Coordinate System(s) ***********
csys,0
toffst,273.15,  ! Temperature offset from absolute zero
/com,*********** Set Reference Temperature ***********
tref,22.
/wb,mat,start              !  starting to send materials
/com,*********** Send Materials ***********
Temperature = 'TEMP' ! Temperature
MP,DENS,1,7.85e-09,	! tonne mm^-3
MP,ALPX,1,1.2e-05,	! C^-1
MP,C,1,434000000,	! mm^2 s^-2 C^-1
MP,KXX,1,60.5,	! tonne mm s^-3 C^-1
MP,RSVX,1,0.00017,	! ohm mm
MP,EX,1,200000,	! tonne s^-2 mm^-1
MP,NUXY,1,0.3,
MP,MURX,1,10000,
MP,UVID,1,347849ec-4af2-4bf9-b86c-b3ed976fb173
MP,UMID,1,59002a79-71c2-428e-906b-55d7dbee100e

/wb,mat,end                !  done sending materials
/com,*********** Send Beam Properties ***********
SECTYPE,1,BEAM,RECT
SECDATA,20.,40.
secoffset,cent

!************************* Model Summary ********************
!Line Body,	Structural Steel,	matid,	1
!************************* End Model Summary ********************
! get the diagonal of the bounding box. Needed later for other things
*get,_xmin,node,,mnloc,x
*get,_ymin,node,,mnloc,y
*get,_zmin,node,,mnloc,z
*get,_xmax,node,,mxloc,x
*get,_ymax,node,,mxloc,y
*get,_zmax,node,,mxloc,z
_ASMDIAG=(_xmax-_xmin)*(_xmax-_xmin)+(_ymax-_ymin)*(_ymax-_ymin)+(_zmax-_zmin)*(_zmax-_zmin)
_ASMDIAG=SQRT(_ASMDIAG)
/wb,contact,start          !  starting to send contact
/wb,contact,end            !  done creating contacts
/golist
/wb,load,start             !  starting to send loads
/com,*********** Fixed Supports ***********
CMBLOCK,_FIXEDSU,NODE,        1
(8i10)
       102
cmsel,s,_FIXEDSU
d,all,all
nsel,all
/com,*********** Define Vertex Force Using Follower Elements ***********
et,2,201
keyo,2,1,1           ! Keep the direction constant
keyo,2,2,1           ! Apply Forces only, not moment
mat,2
real,2
type,2
en,201,1
r,2
rmod,2,1,1.0,              ! FX
mat,3
real,3
type,2
en,202,1
r,3
rmod,3,2,1.0,              ! FY
mat,4
real,4
type,2
en,203,1
r,4
rmod,4,3,1.0,              ! FZ
/com,*********** Define Vertex Force Using Follower Elements ***********
et,5,201
keyo,5,1,1           ! Keep the direction constant
keyo,5,2,1           ! Apply Forces only, not moment
mat,5
real,5
type,5
en,204,2
r,5
rmod,5,1,1.0,              ! FX
mat,6
real,6
type,5
en,205,2
r,6
rmod,6,2,1.0,              ! FY
mat,7
real,7
type,5
en,206,2
r,7
rmod,7,3,1.0,              ! FZ
et,8,14             ! spring element type
/com,*********** Construct Weak Springs, Prototype 1 ***********
*set,_delta,50.
type,8
mat,9
real,9
r,9,1.e-003
nsel,all
*get,_nspr,ndmx
_nspr=_nspr+1
esel,s,type,,1
nsle,s,active
*get,_minx,node,0,mnloc,x
*get,_miny,node,0,mnloc,y
*get,_minz,node,0,mnloc,z
*get,_maxx,node,0,mxloc,x
*get,_maxy,node,0,mxloc,y
*get,_maxz,node,0,mxloc,z
*dim,_ntets,arra,8
_ntets(1) = NODE(_minx,_miny,_minz)
_ntets(2) = NODE(_minx,_miny,_maxz)
_ntets(3) = NODE(_minx,_maxy,_minz)
_ntets(4) = NODE(_minx,_maxy,_maxz)
_ntets(5) = NODE(_maxx,_miny,_minz)
_ntets(6) = NODE(_maxx,_miny,_maxz)
_ntets(7) = NODE(_maxx,_maxy,_minz)
_ntets(8) = NODE(_maxx,_maxy,_maxz)
*do,_i,1,8
  n,_nspr,nx(_ntets(_i))+_delta,ny(_ntets(_i)),nz(_ntets(_i))
  e,_ntets(_i),_nspr
  d,_nspr,all
  _nspr=_nspr+1
  n,_nspr,nx(_ntets(_i)),ny(_ntets(_i))+_delta,nz(_ntets(_i))
  e,_ntets(_i),_nspr
  d,_nspr,all
  _nspr=_nspr+1
  n,_nspr,nx(_ntets(_i)),ny(_ntets(_i)),nz(_ntets(_i))+_delta
  e,_ntets(_i),_nspr
  d,_nspr,all
  _nspr=_nspr+1
*enddo
*set,_ntets
nsel,all
esel,all
/gst,on,on
fini
*get,_numnode,node,0,count
*get,_numelem,elem,0,count
*get, _MAXELEMNUM, elem, 0, NUM, MAX
*get, _MAXNODENUM, node, 0, NUM, MAX
*get, _MAXELEMTYPE, etyp, 0, NUM, MAX
*get, _MAXREALCONST, rcon, 0, NUM, MAX
/go
/wb,load,end               !  done creating loads
/com,--- Number of total nodes = %_numnode%
/com,--- Number of contact elements = 0
/com,--- Number of spring elements = 24
/com,--- Number of bearing elements = 0
/com,--- Number of solid elements = 200
/com,--- Number of condensed parts = 0
/com,--- Number of total elements = %_numelem%
*get,_wallbsol,active,,time,wall
/com,****************************************************************************
/com,*************************    SOLUTION       ********************************
/com,****************************************************************************
/solu
antype,0                   ! static analysis
_thickRatio=  0     ! Ratio of thick parts in the model
eqsl,sparse,,,,,1
cntr,print,1               ! print out contact info and also make no initial contact an error
cncheck,dmp		!	Enable program controlled contact splitting for distributed memory parallel run
dmpoption,emat,no             ! Don't combine emat file for DANSYS
dmpoption,esav,no             ! Don't combine esav file for DANSYS
nldiag,cont,iter           ! print out contact info each equilibrium iteration
rescontrol,,none                 ! Do not keep any restart files
/com,****************************************************
/com,******************* SOLVE FOR LS 1 OF 1 ****************
esel,s,real,,2
sfe,all,1,pres,1,0.
esel,s,real,,3
sfe,all,1,pres,1,-1000.
esel,s,real,,4
sfe,all,1,pres,1,0.
esel,s,real,,5
sfe,all,1,pres,1,0.
esel,s,real,,6
sfe,all,1,pres,1,-2000.
esel,s,real,,7
sfe,all,1,pres,1,0.
esel,all
/nopr
/gopr
nsub,1,1,1
time,1.
outres,erase
outres,all,none
outres,nsol,all,
outres,rsol,all
outres,eangl,all
outres,etmp,all
outres,veng,all
outres,strs,all,
outres,epel,all,
outres,eppl,all,
outres,cont,all,
/nopr
esel,s,type,,1
cm,_elmisc,elem
esel,all
/gopr
outres,misc,all,_elmisc
! *********** WB SOLVE COMMAND ***********
! check interactive state
*get,ANSINTER_,active,,int
*if,ANSINTER_,ne,0,then
/eof
*endif
solve
/com *************** Write FE CONNECTORS ********* 
CEWRITE,file,ce,,INTE
/com,****************************************************
/com,*************** FINISHED SOLVE FOR LS 1 *************
*get,_wallasol,active,,time,wall
/nopr
*get,_numnode,node,0,count
*get,_numelem,elem,0,count
*get, _MAXELEMNUM, elem, 0, NUM, MAX
*get, _MAXNODENUM, node, 0, NUM, MAX,,,INTERNAL
*get, _MAXELEMTYPE, etyp, 0, NUM, MAX
*get, _MAXREALCONST, rcon, 0, NUM, MAX
*get,_NSOLTHREADS,active,0,ntfs
*get,_NSOLPROCESSES,active,0,npfs
/gopr
/post1
xmlo,ENCODING,ISO-8859-1
xmlo,parm
/xml,parm,xml
fini
/gopr
*get,_walldone,active,,time,wall
_preptime=(_wallbsol-_wallstrt)*3600
_solvtime=(_wallasol-_wallbsol)*3600
_posttime=(_walldone-_wallasol)*3600
_totaltim=(_walldone-_wallstrt)*3600
*get,_dlbratio,active,0,solu,dlbr
*get,_combtime,active,0,solu,comb
*get,_ssmode,active,0,solu,ssmm
*get,_ndofs,active,0,solu,ndof
*get,_sol_end_time,active,0,set,time
*if,_sol_end_time,eq,1.000000,then
/fclean				!clean distributed files
*endif
/com,--- Total number of nodes = %_numnode%
/com,--- Total number of elements = %_numelem%
/com,--- Element load balance ratio = %_dlbratio%
/com,--- Time to combine distributed files = %_combtime%
/com,--- Sparse memory mode = %_ssmode%
/com,--- Number of DOF = %_ndofs%
/wb,file,end               ! done with WB generated input
