/batch
/config,noeldb,1     ! force off writing results to database
*get,_wallstrt,active,,time,wall
! ANSYS input file written by Workbench version 2024 R1
! File used for geometry attach: C:\Users\mert_\AppData\Local\Temp\WB_Mert_13352_2\wbnew_files\dp0\SYS\DM\SYS.agdb
/title,Kontak Analizi--Static Structural (A5)
! ****** Begin Custom Load Command Snippet ******
/COM, ACT Extensions:
/COM,     LSDYNA, 2024.1
/COM,     5f463412-bd3e-484b-87e7-cbc0a665e474, wbex
/COM,/COM,     ANSYSMotion, 2024.1
/COM,     20180725-3f81-49eb-9f31-41364844c769, wbex
/COM,
! ****** End   Custom Load Command Snippet ******

/com,--- Data in consistent NMM units. See Solving Units in the help system for more information.
/units,MPA
/nopr
/wb,file,start              !  signify a WB generated input file
/prep7
! Turn off shape checking because checks already performed inside WB mesher.
! See help system for more information.
SHPP,OFF,,NOWARN
/nolist
etcon,set             ! allow ANSYS to choose best KEYOP's for 180x elements, resets any applicable keyopt to MAPDL defaults
/com,*********** Nodes for the whole assembly ***********
nblock,3,,12192
(1i9,3e20.9e3)
        1     9.973414590E+01     9.922995943E+01     1.577599168E+02
        2     9.973414590E+01     9.522995943E+01     1.577599168E+02
        3     1.031982475E+02     9.322995943E+01     1.577599168E+02
        4     1.066623491E+02     9.522995943E+01     1.577599168E+02
        5     1.031982475E+02     1.012299594E+02     1.577599168E+02
        6     1.066623491E+02     9.922995943E+01     1.577599168E+02
        7     8.319824752E+01     1.047299594E+02     1.577599168E+02
        8     9.319824752E+01     1.047299594E+02     1.577599168E+02
        9     1.031982475E+02     1.047299594E+02     1.577599168E+02
       10     1.131982475E+02     1.047299594E+02     1.577599168E+02
       11     1.231982475E+02     1.047299594E+02     1.577599168E+02
       12     1.431982475E+02     1.047299594E+02     1.577599168E+02
       13     1.631982475E+02     1.047299594E+02     1.577599168E+02
       14     1.831982475E+02     1.047299594E+02     1.577599168E+02
       15     1.831982475E+02     8.972995943E+01     1.577599168E+02
       16     1.631982475E+02     8.972995943E+01     1.577599168E+02
       17     1.431982475E+02     8.972995943E+01     1.577599168E+02
       18     1.231982475E+02     8.972995943E+01     1.577599168E+02
       19     1.131982475E+02     8.972995943E+01     1.577599168E+02
       20     1.031982475E+02     8.972995943E+01     1.577599168E+02
! ... 11065 like lines cut
/wb,elem,start            !  set before creation of elements
/com,*********** Elements for Body 1 "pim" ***********
et,1,187
eblock,19,solid,,6241
(19i9)
        1        1        1        1        0        0        0        0       10        0      758     1337     1343     1345     1333     3130     3127     3117     3118
     2586     3119
        1        1        1        1        0        0        0        0       10        0      759     1343     1339     1345     1333     3124     3128     3127     2586
     3133     3119
        1        1        1        1        0        0        0        0       10        0      760     1337     2180     1343     1333     3131     3129     3130     3118
     2585     2586
        1        1        1        1        0        0        0        0       10        0      761     2180     1791     1343     1333     8884     6200     3129     2585
     3134     2586
        1        1        1        1        0        0        0        0       10        0      762     1791     2180     1945     1333     8884     8885     7488     3134
     2585     2729
        1        1        1        1        0        0        0        0       10        0      763     2180     1337     1945     1333     3131     6109     8885     2585
     3118     2729
        1        1        1        1        0        0        0        0       10        0      764     1333     1339     1791     1343     3133     3132     3134     2586
     3124     6200
        1        1        1        1        0        0        0        0       10        0      765     1346     1349     1356     1351     3948     3947     3949     3958
     2587     3955
        1        1        1        1        0        0        0        0       10        0      766     1349     1354     1356     1351     3956     3954     3947     2587
     3939     3955
        1        1        1        1        0        0        0        0       10        0      767     1354     1349     2182     1351     3956     3957     3945     3939
     2587     2603
! ... 12463 like lines cut
!Material Id = {C2A67BC5-2E3B-4C1B-BBA0-8237158ACE77}
/com,*********** Elements for Body 2 "govde" ***********
et,2,186
keyo,2,2,1          ! set full integration on SOLID186
eblock,19,solid,,33
(19i9)
        2        2        2        2        0        0        0        0       20        0        1       31       52       53       32       37       65       64       38
      175      225      179      173      193      248      196      192      174      227      231      178
        2        2        2        2        0        0        0        0       20        0        2       25       58       59       26       31       52       53       32
      154      242      158      152      175      225      179      173      153      226      230      157
        2        2        2        2        0        0        0        0       20        0        3       10       11       18       19       58       59       26       25
      115      119      135      116      242      158      152      154      117      120      136      138
        2        2        2        2        0        0        0        0       20        0        4       31       74       73       52       37       77       75       65
      176      262      228      175      194      268      250      193      174      265      263      227
        2        2        2        2        0        0        0        0       20        0        5       25       72       71       58       31       74       73       52
      155      257      243      154      176      262      228      175      153      260      258      226
        2        2        2        2        0        0        0        0       20        0        6        4        6       10       19       72       71       58       25
       99      105      116      100      257      243      154      155      101      106      117      138
        2        2        2        2        0        0        0        0       20        0        7       32       53       54       33       38       64       63       39
      179      229      182      177      196      247      198      195      178      231      234      181
        2        2        2        2        0        0        0        0       20        0        8       26       59       60       27       32       53       54       33
      158      244      161      156      179      229      182      177      157      230      233      160
        2        2        2        2        0        0        0        0       20        0        9       11       12       17       18       59       60       27       26
      118      122      133      119      244      161      156      158      120      123      134      136
        2        2        2        2        0        0        0        0       20        0       10       33       54       55       34       39       63       62       40
      182      232      185      180      198      246      200      197      181      234      236      183
! ... 47 like lines cut
!Material Id = {5E657077-17B3-4352-B2E2-05D9320FD3FE}
/com,*********** Elements for Body 3 "yoke" ***********
et,3,187
eblock,19,solid,,324
(19i9)
        3        3        3        3        0        0        0        0       10        0       34      315      322      334      450      592      632      594      598
      633      667
        3        3        3        3        0        0        0        0       10        0       35      315      319      322      450      591      612      592      598
      617      633
        3        3        3        3        0        0        0        0       10        0       36      319      334      322      450      616      632      612      617
      667      633
        3        3        3        3        0        0        0        0       10        0       37      327      328      450      444      644      656      650      649
      655     1092
        3        3        3        3        0        0        0        0       10        0       38      313      327      450      444      578      650      583      581
      649     1092
        3        3        3        3        0        0        0        0       10        0       39      319      334      450      331      616      667      617      614
      663      664
        3        3        3        3        0        0        0        0       10        0       40      313      319      450      331      577      617      583      579
      614      664
        3        3        3        3        0        0        0        0       10        0       41      327      450      328      331      650      656      644      645
      664      651
        3        3        3        3        0        0        0        0       10        0       42      313      450      327      331      583      650      578      579
      664      645
        3        3        3        3        0        0        0        0       10        0       43      313      319      315      450      577      591      575      583
      617      598
! ... 629 like lines cut
!Material Id = {B897761F-C6ED-421B-9801-158431979A64}
/wb,elem,end               !  done creating elements
/com,*********** Send User Defined Coordinate System(s) ***********
csys,0
toffst,273.15,  ! Temperature offset from absolute zero
/com,*********** Set Reference Temperature ***********
tref,22.
/wb,mat,start              !  starting to send materials
/com,*********** Send Materials ***********
Temperature = 'TEMP' ! Temperature
MP,DENS,1,7.85e-09,	! tonne mm^-3
MP,ALPX,1,1.2e-05,	! C^-1
MP,C,1,434000000,	! mm^2 s^-2 C^-1
MP,KXX,1,60.5,	! tonne mm s^-3 C^-1
MP,RSVX,1,0.00017,	! ohm mm
MP,EX,1,200000,	! tonne s^-2 mm^-1
MP,NUXY,1,0.3,
MP,MURX,1,10000,
MP,UVID,1,8f553260-88dd-4486-805c-57afcd7c8e50
MP,UMID,1,59002a79-71c2-428e-906b-55d7dbee100e

Temperature = 'TEMP' ! Temperature
MP,DENS,2,7.85e-09,	! tonne mm^-3
MP,ALPX,2,1.2e-05,	! C^-1
MP,C,2,434000000,	! mm^2 s^-2 C^-1
MP,KXX,2,60.5,	! tonne mm s^-3 C^-1
MP,RSVX,2,0.00017,	! ohm mm
MP,EX,2,200000,	! tonne s^-2 mm^-1
MP,NUXY,2,0.3,
MP,MURX,2,10000,
MP,UVID,2,8f553260-88dd-4486-805c-57afcd7c8e50
MP,UMID,2,59002a79-71c2-428e-906b-55d7dbee100e

Temperature = 'TEMP' ! Temperature
MP,DENS,3,7.85e-09,	! tonne mm^-3
MP,ALPX,3,1.2e-05,	! C^-1
MP,C,3,434000000,	! mm^2 s^-2 C^-1
MP,KXX,3,60.5,	! tonne mm s^-3 C^-1
MP,RSVX,3,0.00017,	! ohm mm
MP,EX,3,200000,	! tonne s^-2 mm^-1
MP,NUXY,3,0.3,
MP,MURX,3,10000,
MP,UVID,3,8f553260-88dd-4486-805c-57afcd7c8e50
MP,UMID,3,59002a79-71c2-428e-906b-55d7dbee100e

/wb,mat,end                !  done sending materials
!************************* Model Summary ********************
!pim,	Structural Steel,	matid,	1
!govde,	Structural Steel,	matid,	2
!yoke,	Structural Steel,	matid,	3
!************************* End Model Summary ********************
! get the diagonal of the bounding box. Needed later for other things
*get,_xmin,node,,mnloc,x
*get,_ymin,node,,mnloc,y
*get,_zmin,node,,mnloc,z
*get,_xmax,node,,mxloc,x
*get,_ymax,node,,mxloc,y
*get,_zmax,node,,mxloc,z
_ASMDIAG=(_xmax-_xmin)*(_xmax-_xmin)+(_ymax-_ymin)*(_ymax-_ymin)+(_zmax-_zmin)*(_zmax-_zmin)
_ASMDIAG=SQRT(_ASMDIAG)
/wb,contact,start          !  starting to send contact
/com,*********** Create Contact "Bonded - pim To govde" ***********
/com,            Real Constant Set For Above Contact Is 5 & 4 
*set,tid,5
*set,cid,4
r,tid
r,cid
et,tid,170
et,cid,174
eblock,10,,,1318
(15i9)
     8541        5        5        5        0     2282     2287     2288     2288     9416     9425     2288     9424
     8542        5        5        5        0     2288     2287     2349     2349     9425     9764     2349     9765
     8543        5        5        5        0     2476     2404     2403     2403    10550    10112     2403    10549
     8544        5        5        5        0     2404     2340     2403     2403    10110    10103     2403    10112
     8545        5        5        5        0     2345     2284     2342     2342     9741     9725     2342     9742
     8546        5        5        5        0     2408     2345     2342     2342    10134     9742     2342    10133
     8547        5        5        5        0     2342     2407     2408     2408    10127    10135     2408    10133
     8548        5        5        5        0     2407     2342     2341     2341    10127     9727     2341    10126
     8549        5        5        5        0     2470     2553     2554     2554    11018    11028     2554    11026
     8550        5        5        5        0     2336     2281     2280     2280     9691     9393     2280     9690
     8551        5        5        5        0     2290     2280     2289     2289     9435     9427     2289     9436
     8552        5        5        5        0     2280     2281     2289     2289     9393     9428     2289     9427
     8553        5        5        5        0     2351     2290     2289     2289     9778     9436     2289     9777
     8554        5        5        5        0     2350     2289     2288     2288     9772     9429     2288     9771
     8555        5        5        5        0     2398     2335     2397     2397    10072    10066     2397    10074
     8556        5        5        5        0     2336     2280     2335     2335     9690     9685     2335     9692
     8557        5        5        5        0     2398     2336     2335     2335    10073     9692     2335    10072
     8558        5        5        5        0     2388     2387     2460     2460    10011    10451     2460    10452
     8559        5        5        5        0     2325     2387     2388     2388    10003    10011     2388    10009
     8560        5        5        5        0     2443     2525     2526     2526    10801    10811     2526    10809
! ... 1299 like lines cut
eblock,10,,,1318
(15i9)
     9859        4        4        4        0     2282     2287     2288     2288     9416     9425     2288     9424
     9860        4        4        4        0     2288     2287     2349     2349     9425     9764     2349     9765
     9861        4        4        4        0     2476     2404     2403     2403    10550    10112     2403    10549
     9862        4        4        4        0     2404     2340     2403     2403    10110    10103     2403    10112
     9863        4        4        4        0     2345     2284     2342     2342     9741     9725     2342     9742
     9864        4        4        4        0     2408     2345     2342     2342    10134     9742     2342    10133
     9865        4        4        4        0     2342     2407     2408     2408    10127    10135     2408    10133
     9866        4        4        4        0     2407     2342     2341     2341    10127     9727     2341    10126
     9867        4        4        4        0     2470     2553     2554     2554    11018    11028     2554    11026
     9868        4        4        4        0     2336     2281     2280     2280     9691     9393     2280     9690
     9869        4        4        4        0     2290     2280     2289     2289     9435     9427     2289     9436
     9870        4        4        4        0     2280     2281     2289     2289     9393     9428     2289     9427
     9871        4        4        4        0     2351     2290     2289     2289     9778     9436     2289     9777
     9872        4        4        4        0     2350     2289     2288     2288     9772     9429     2288     9771
     9873        4        4        4        0     2398     2335     2397     2397    10072    10066     2397    10074
     9874        4        4        4        0     2336     2280     2335     2335     9690     9685     2335     9692
     9875        4        4        4        0     2398     2336     2335     2335    10073     9692     2335    10072
     9876        4        4        4        0     2388     2387     2460     2460    10011    10451     2460    10452
     9877        4        4        4        0     2325     2387     2388     2388    10003    10011     2388    10009
     9878        4        4        4        0     2443     2525     2526     2526    10801    10811     2526    10809
! ... 1299 like lines cut
eblock,10,,,18
(15i9)
    11177        4        5        4        0       80       71        6        5      259      106      102      104
    11178        4        5        4        0       79       73       71       80      264      258      259      274
    11179        4        5        4        0       76       75       73       79      267      263      264      269
    11180        4        5        4        0       71       72        4        6      257      101       99      106
    11181        4        5        4        0       73       74       72       71      262      260      257      258
    11182        4        5        4        0       75       77       74       73      268      265      262      263
    11183        4        5        4        0       72       81        3        4      261       98       96      101
    11184        4        5        4        0       74       82       81       72      266      277      261      260
    11185        4        5        4        0       77       78       82       74      271      272      266      265
    11186        4        5        4        0       81       83        2        3      278       95       93       98
    11187        4        5        4        0       82       85       83       81      279      281      278      277
    11188        4        5        4        0       78       87       85       82      273      284      279      272
    11189        4        5        4        0       83       84        1        2      280       92       89       95
    11190        4        5        4        0       85       86       84       83      283      282      280      281
    11191        4        5        4        0       87       88       86       85      286      285      283      284
    11192        4        5        4        0       84       80        5        1      276      104       90       92
    11193        4        5        4        0       86       79       80       84      275      274      276      282
    11194        4        5        4        0       88       76       79       86      270      269      275      285
-1
eblock,10,,,18
(15i9)
    11195        5        4        5        0       80       71        6        5      259      106      102      104
    11196        5        4        5        0       79       73       71       80      264      258      259      274
    11197        5        4        5        0       76       75       73       79      267      263      264      269
    11198        5        4        5        0       71       72        4        6      257      101       99      106
    11199        5        4        5        0       73       74       72       71      262      260      257      258
    11200        5        4        5        0       75       77       74       73      268      265      262      263
    11201        5        4        5        0       72       81        3        4      261       98       96      101
    11202        5        4        5        0       74       82       81       72      266      277      261      260
    11203        5        4        5        0       77       78       82       74      271      272      266      265
    11204        5        4        5        0       81       83        2        3      278       95       93       98
    11205        5        4        5        0       82       85       83       81      279      281      278      277
    11206        5        4        5        0       78       87       85       82      273      284      279      272
    11207        5        4        5        0       83       84        1        2      280       92       89       95
    11208        5        4        5        0       85       86       84       83      283      282      280      281
    11209        5        4        5        0       87       88       86       85      286      285      283      284
    11210        5        4        5        0       84       80        5        1      276      104       90       92
    11211        5        4        5        0       86       79       80       84      275      274      276      282
    11212        5        4        5        0       88       76       79       86      270      269      275      285
-1
keyo,cid,8,2               ! auto create asymmetric contact (from Program Controlled setting)
keyo,cid,10,0              ! adjust contact stiffness each NR iteration (from Program Controlled setting)
keyo,cid,12,5              ! bonded always
keyo,cid,18,1              ! small sliding turned on by application
keyo,cid,2,2               ! MPC for bonded contacts (from Program Controlled setting)
keyo,tid,5,0               ! Automatic constraint type detection
keyo,cid,4,2               ! on nodal point - normal to target surface (from Program Controlled setting)
keyo,cid,9,1               ! ignore initial gaps/penetration
keyo,cid,7,0               ! No Prediction
rmod,tid,3,1.       ! FKN
rmod,tid,5,0.       ! ICONT
rmod,tid,6,0.       ! PINB
rmod,tid,10,0.      ! CNOF
rmod,tid,12,0.      ! FKT
rmod,tid,36,32      ! WB DSID
rmod,cid,3,1.       ! FKN
rmod,cid,5,0.       ! ICONT
rmod,cid,6,0.       ! PINB
rmod,cid,10,0.      ! CNOF
rmod,cid,12,0.      ! FKT
rmod,cid,36,32      ! WB DSID
/com,*********** Create Contact "Frictional - pim To yoke" ***********
/com,            Real Constant Set For Above Contact Is 7 & 6 
*set,tid,7
*set,cid,6
r,tid
r,cid
et,tid,170
et,cid,174
eblock,10,,,1318
(15i9)
    11213        7        7        7        0     2282     2287     2288     2288     9416     9425     2288     9424
    11214        7        7        7        0     2288     2287     2349     2349     9425     9764     2349     9765
    11215        7        7        7        0     2476     2404     2403     2403    10550    10112     2403    10549
    11216        7        7        7        0     2404     2340     2403     2403    10110    10103     2403    10112
    11217        7        7        7        0     2345     2284     2342     2342     9741     9725     2342     9742
    11218        7        7        7        0     2408     2345     2342     2342    10134     9742     2342    10133
    11219        7        7        7        0     2342     2407     2408     2408    10127    10135     2408    10133
    11220        7        7        7        0     2407     2342     2341     2341    10127     9727     2341    10126
    11221        7        7        7        0     2470     2553     2554     2554    11018    11028     2554    11026
    11222        7        7        7        0     2336     2281     2280     2280     9691     9393     2280     9690
    11223        7        7        7        0     2290     2280     2289     2289     9435     9427     2289     9436
    11224        7        7        7        0     2280     2281     2289     2289     9393     9428     2289     9427
    11225        7        7        7        0     2351     2290     2289     2289     9778     9436     2289     9777
    11226        7        7        7        0     2350     2289     2288     2288     9772     9429     2288     9771
    11227        7        7        7        0     2398     2335     2397     2397    10072    10066     2397    10074
    11228        7        7        7        0     2336     2280     2335     2335     9690     9685     2335     9692
    11229        7        7        7        0     2398     2336     2335     2335    10073     9692     2335    10072
    11230        7        7        7        0     2388     2387     2460     2460    10011    10451     2460    10452
    11231        7        7        7        0     2325     2387     2388     2388    10003    10011     2388    10009
    11232        7        7        7        0     2443     2525     2526     2526    10801    10811     2526    10809
! ... 1299 like lines cut
eblock,10,,,1318
(15i9)
    12531        6        6        6        0     2282     2287     2288     2288     9416     9425     2288     9424
    12532        6        6        6        0     2288     2287     2349     2349     9425     9764     2349     9765
    12533        6        6        6        0     2476     2404     2403     2403    10550    10112     2403    10549
    12534        6        6        6        0     2404     2340     2403     2403    10110    10103     2403    10112
    12535        6        6        6        0     2345     2284     2342     2342     9741     9725     2342     9742
    12536        6        6        6        0     2408     2345     2342     2342    10134     9742     2342    10133
    12537        6        6        6        0     2342     2407     2408     2408    10127    10135     2408    10133
    12538        6        6        6        0     2407     2342     2341     2341    10127     9727     2341    10126
    12539        6        6        6        0     2470     2553     2554     2554    11018    11028     2554    11026
    12540        6        6        6        0     2336     2281     2280     2280     9691     9393     2280     9690
    12541        6        6        6        0     2290     2280     2289     2289     9435     9427     2289     9436
    12542        6        6        6        0     2280     2281     2289     2289     9393     9428     2289     9427
    12543        6        6        6        0     2351     2290     2289     2289     9778     9436     2289     9777
    12544        6        6        6        0     2350     2289     2288     2288     9772     9429     2288     9771
    12545        6        6        6        0     2398     2335     2397     2397    10072    10066     2397    10074
    12546        6        6        6        0     2336     2280     2335     2335     9690     9685     2335     9692
    12547        6        6        6        0     2398     2336     2335     2335    10073     9692     2335    10072
    12548        6        6        6        0     2388     2387     2460     2460    10011    10451     2460    10452
    12549        6        6        6        0     2325     2387     2388     2388    10003    10011     2388    10009
    12550        6        6        6        0     2443     2525     2526     2526    10801    10811     2526    10809
! ... 1299 like lines cut
eblock,10,,,24
(15i9)
    13849        6        7        6        0      297      301      298      298      500      505      298      498
    13850        6        7        6        0      297      302      301      301      501      516      301      500
    13851        6        7        6        0      292      306      303      303      476      526      303      475
    13852        6        7        6        0      292      303      294      294      475      485      294      474
    13853        6        7        6        0      389      390      393      393      943      947      393      945
    13854        6        7        6        0      390      379      394      394      910      911      394      948
    13855        6        7        6        0      382      394      379      379      920      911      379      909
    13856        6        7        6        0      393      390      394      394      947      948      394      957
    13857        6        7        6        0      383      395      384      384      925      929      384      922
    13858        6        7        6        0      383      391      395      395      924      951      395      925
    13859        6        7        6        0      391      392      395      395      950      954      395      951
    13860        6        7        6        0      392      389      396      396      944      946      396      955
    13861        6        7        6        0      393      396      389      389      958      946      389      945
    13862        6        7        6        0      395      392      396      396      954      955      396      961
    13863        6        7        6        0      291      293      296      296      467      480      296      469
    13864        6        7        6        0      293      294      296      296      479      484      296      480
    13865        6        7        6        0      292      294      293      293      474      479      293      473
    13866        6        7        6        0      296      295      291      291      487      468      291      469
    13867        6        7        6        0      298      299      300      300      503      509      300      504
    13868        6        7        6        0      299      295      300      300      488      489      300      509
! ... 5 like lines cut
eblock,10,,,24
(15i9)
    13873        7        6        7        0      297      301      298      298      500      505      298      498
    13874        7        6        7        0      297      302      301      301      501      516      301      500
    13875        7        6        7        0      292      306      303      303      476      526      303      475
    13876        7        6        7        0      292      303      294      294      475      485      294      474
    13877        7        6        7        0      389      390      393      393      943      947      393      945
    13878        7        6        7        0      390      379      394      394      910      911      394      948
    13879        7        6        7        0      382      394      379      379      920      911      379      909
    13880        7        6        7        0      393      390      394      394      947      948      394      957
    13881        7        6        7        0      383      395      384      384      925      929      384      922
    13882        7        6        7        0      383      391      395      395      924      951      395      925
    13883        7        6        7        0      391      392      395      395      950      954      395      951
    13884        7        6        7        0      392      389      396      396      944      946      396      955
    13885        7        6        7        0      393      396      389      389      958      946      389      945
    13886        7        6        7        0      395      392      396      396      954      955      396      961
    13887        7        6        7        0      291      293      296      296      467      480      296      469
    13888        7        6        7        0      293      294      296      296      479      484      296      480
    13889        7        6        7        0      292      294      293      293      474      479      293      473
    13890        7        6        7        0      296      295      291      291      487      468      291      469
    13891        7        6        7        0      298      299      300      300      503      509      300      504
    13892        7        6        7        0      299      295      300      300      488      489      300      509
! ... 5 like lines cut
keyo,cid,8,2               ! auto create asymmetric contact (from Program Controlled setting)
keyo,cid,10,0              ! adjust contact stiffness each NR iteration (from Program Controlled setting)
keyo,cid,12,0              ! standard contact
mp,mu,cid,0.2       ! unitless
keyo,cid,18,1              ! small sliding turned on by application
keyo,cid,2,0               ! augmented Lagrange (from Program Controlled setting)
keyo,cid,4,0               ! on Gauss point (from Program Controlled setting)
keyo,cid,9,0               ! use real geometry with stepped effects
keyo,cid,7,0               ! No Prediction
rmod,tid,3,1.       ! FKN
rmod,tid,5,0.       ! ICONT
rmod,tid,6,0.       ! PINB
rmod,tid,10,0.      ! CNOF
rmod,tid,12,0.      ! FKT
rmod,tid,36,35      ! WB DSID
rmod,cid,3,1.       ! FKN
rmod,cid,5,0.       ! ICONT
rmod,cid,6,0.       ! PINB
rmod,cid,10,0.      ! CNOF
rmod,cid,12,0.      ! FKT
rmod,cid,36,35      ! WB DSID
/com,*********** Create Contact "Frictional - govde To yoke" ***********
/com,            Real Constant Set For Above Contact Is 9 & 8 
*set,tid,9
*set,cid,8
r,tid
r,cid
et,tid,170
et,cid,174
eblock,10,,,22
(15i9)
    13897        9        9        9        0       11       10       19       18      115      116      135      119
    13898        9        9        9        0        4       19       10        6      100      116      105       99
    13899        9        9        9        0       18       17       12       11      133      122      118      119
    13900        9        9        9        0       17       16       13       12      131      125      121      122
    13901        9        9        9        0       16       15       14       13      129      127      124      125
    13902        9        9        9        0        8        7       22       21      107      108      141      111
    13903        9        9        9        0       10        9        5        6      113      103      102      105
    13904        9        9        9        0        8        1        5        9       91       90      103      110
    13905        9        9        9        0       21        2        1        8       94       89       91      111
    13906        9        9        9        0        4        3       20       19       96       97      137      100
    13907        9        9        9        0       20        3        2       21       97       93       94      139
    13908        9        9        9        0       37       65       64       38      193      248      196      192
    13909        9        9        9        0       65       37       77       75      193      194      268      250
    13910        9        9        9        0       63       39       38       64      198      195      196      247
    13911        9        9        9        0       62       40       39       63      200      197      198      246
    13912        9        9        9        0       49       46       40       62      210      199      200      215
    13913        9        9        9        0       41       70       67       35      202      253      188      187
    13914        9        9        9        0       76       66       65       75      252      249      250      267
    13915        9        9        9        0       76       88       67       66      270      254      251      252
    13916        9        9        9        0       88       87       35       67      286      189      188      254
    13917        9        9        9        0       36       78       77       37      191      271      194      190
    13918        9        9        9        0       87       78       36       35      273      191      186      189
-1
eblock,10,,,22
(15i9)
    13919        8        8        8        0       11       10       19       18      115      116      135      119
    13920        8        8        8        0        4       19       10        6      100      116      105       99
    13921        8        8        8        0       18       17       12       11      133      122      118      119
    13922        8        8        8        0       17       16       13       12      131      125      121      122
    13923        8        8        8        0       16       15       14       13      129      127      124      125
    13924        8        8        8        0        8        7       22       21      107      108      141      111
    13925        8        8        8        0       10        9        5        6      113      103      102      105
    13926        8        8        8        0        8        1        5        9       91       90      103      110
    13927        8        8        8        0       21        2        1        8       94       89       91      111
    13928        8        8        8        0        4        3       20       19       96       97      137      100
    13929        8        8        8        0       20        3        2       21       97       93       94      139
    13930        8        8        8        0       37       65       64       38      193      248      196      192
    13931        8        8        8        0       65       37       77       75      193      194      268      250
    13932        8        8        8        0       63       39       38       64      198      195      196      247
    13933        8        8        8        0       62       40       39       63      200      197      198      246
    13934        8        8        8        0       49       46       40       62      210      199      200      215
    13935        8        8        8        0       41       70       67       35      202      253      188      187
    13936        8        8        8        0       76       66       65       75      252      249      250      267
    13937        8        8        8        0       76       88       67       66      270      254      251      252
    13938        8        8        8        0       88       87       35       67      286      189      188      254
    13939        8        8        8        0       36       78       77       37      191      271      194      190
    13940        8        8        8        0       87       78       36       35      273      191      186      189
-1
eblock,10,,,34
(15i9)
    13941        8        9        8        0      375      393      394      394      884      957      394      885
    13942        8        9        8        0      369      396      393      393      850      958      393      849
    13943        8        9        8        0      370      384      431      431      855      930      431      858
    13944        8        9        8        0      369      431      396      396      851      964      396      850
    13945        8        9        8        0      365      367      386      386      825      841      386      829
    13946        8        9        8        0      382      436      394      394      921      960      394      920
    13947        8        9        8        0      381      436      382      382      919      921      382      917
    13948        8        9        8        0      375      394      436      436      885      960      436      887
    13949        8        9        8        0      378      436      381      381      905      919      381      901
    13950        8        9        8        0      367      378      386      386      840      902      386      841
    13951        8        9        8        0      365      385      370      370      828      856      370      826
    13952        8        9        8        0      365      386      385      385      829      931      385      828
    13953        8        9        8        0      395      396      431      431      961      964      431      962
    13954        8        9        8        0      370      385      384      384      856      927      384      855
    13955        8        9        8        0      378      381      386      386      901      918      386      902
    13956        8        9        8        0      369      393      375      375      849      884      375      848
    13957        8        9        8        0      384      395      431      431      929      962      431      930
    13958        8        9        8        0      296      425      348      348      497      738      348      495
    13959        8        9        8        0      295      296      348      348      487      495      348      493
    13960        8        9        8        0      303      305      351      351      525      543      351      528
! ... 15 like lines cut
eblock,10,,,34
(15i9)
    13975        9        8        9        0      375      393      394      394      884      957      394      885
    13976        9        8        9        0      369      396      393      393      850      958      393      849
    13977        9        8        9        0      370      384      431      431      855      930      431      858
    13978        9        8        9        0      369      431      396      396      851      964      396      850
    13979        9        8        9        0      365      367      386      386      825      841      386      829
    13980        9        8        9        0      382      436      394      394      921      960      394      920
    13981        9        8        9        0      381      436      382      382      919      921      382      917
    13982        9        8        9        0      375      394      436      436      885      960      436      887
    13983        9        8        9        0      378      436      381      381      905      919      381      901
    13984        9        8        9        0      367      378      386      386      840      902      386      841
    13985        9        8        9        0      365      385      370      370      828      856      370      826
    13986        9        8        9        0      365      386      385      385      829      931      385      828
    13987        9        8        9        0      395      396      431      431      961      964      431      962
    13988        9        8        9        0      370      385      384      384      856      927      384      855
    13989        9        8        9        0      378      381      386      386      901      918      386      902
    13990        9        8        9        0      369      393      375      375      849      884      375      848
    13991        9        8        9        0      384      395      431      431      929      962      431      930
    13992        9        8        9        0      296      425      348      348      497      738      348      495
    13993        9        8        9        0      295      296      348      348      487      495      348      493
    13994        9        8        9        0      303      305      351      351      525      543      351      528
! ... 15 like lines cut
keyo,cid,8,2               ! auto create asymmetric contact (from Program Controlled setting)
keyo,cid,10,0              ! adjust contact stiffness each NR iteration (from Program Controlled setting)
keyo,cid,12,0              ! standard contact
mp,mu,cid,0.2       ! unitless
keyo,cid,18,1              ! small sliding turned on by application
keyo,cid,2,0               ! augmented Lagrange (from Program Controlled setting)
keyo,cid,4,0               ! on Gauss point (from Program Controlled setting)
keyo,cid,9,0               ! use real geometry with stepped effects
keyo,cid,7,0               ! No Prediction
rmod,tid,3,1.       ! FKN
rmod,tid,5,0.       ! ICONT
rmod,tid,6,0.       ! PINB
rmod,tid,10,0.      ! CNOF
rmod,tid,12,0.      ! FKT
rmod,tid,36,38      ! WB DSID
rmod,cid,3,1.       ! FKN
rmod,cid,5,0.       ! ICONT
rmod,cid,6,0.       ! PINB
rmod,cid,10,0.      ! CNOF
rmod,cid,12,0.      ! FKT
rmod,cid,36,38      ! WB DSID
nsel,all
esel,all
/wb,contact,end            !  done creating contacts
/golist
/wb,load,start             !  starting to send loads
/com,******* Constant Zero Displacement X *******
CMBLOCK,_DISPZEROUX,NODE,        9
(8i10)
       317       318       325       326       604       606       609       610
       640
cmsel,s,_DISPZEROUX
d,all,ux,0
nsel,all
/com,*********** Define Force Using Surface Effect Elements ***********
local,12,0,0.,0.,0.,0.,0.,0.
csys,0
et,10,154
mat,10
eblock,10,,,3
(15i9)
    14009       10       10       10       12       48       45       46       49      209      208      210      213
    14010       10       10       10       12       47       44       45       48      207      206      209      211
    14011       10       10       10       12       14       15       44       47      127      130      207      128
-1
esel,s,type,,10
keyop,10,2,1                ! Apply load in local coordinate system
keyop,10,7,1                ! Use original area so load is constant in large deformation
esel,all
et,11,14             ! spring element type
/com,*********** Construct Weak Springs, Prototype 1 ***********
*set,_delta,3.54541924199512
type,11
mat,12
real,12
r,12,1.65218179830798e-004
nsel,all
*get,_nspr,ndmx
_nspr=_nspr+1
esel,s,type,,1
nsle,s,active
*get,_minx,node,0,mnloc,x
*get,_miny,node,0,mnloc,y
*get,_minz,node,0,mnloc,z
*get,_maxx,node,0,mxloc,x
*get,_maxy,node,0,mxloc,y
*get,_maxz,node,0,mxloc,z
*dim,_ntets,arra,8
_ntets(1) = NODE(_minx,_miny,_minz)
_ntets(2) = NODE(_minx,_miny,_maxz)
_ntets(3) = NODE(_minx,_maxy,_minz)
_ntets(4) = NODE(_minx,_maxy,_maxz)
_ntets(5) = NODE(_maxx,_miny,_minz)
_ntets(6) = NODE(_maxx,_miny,_maxz)
_ntets(7) = NODE(_maxx,_maxy,_minz)
_ntets(8) = NODE(_maxx,_maxy,_maxz)
*do,_i,1,8
  n,_nspr,nx(_ntets(_i))+_delta,ny(_ntets(_i)),nz(_ntets(_i))
  e,_ntets(_i),_nspr
  d,_nspr,all
  _nspr=_nspr+1
  n,_nspr,nx(_ntets(_i)),ny(_ntets(_i))+_delta,nz(_ntets(_i))
  e,_ntets(_i),_nspr
  d,_nspr,all
  _nspr=_nspr+1
  n,_nspr,nx(_ntets(_i)),ny(_ntets(_i)),nz(_ntets(_i))+_delta
  e,_ntets(_i),_nspr
  d,_nspr,all
  _nspr=_nspr+1
*enddo
*set,_ntets
nsel,all
esel,all
/com,*********** Construct Weak Springs, Prototype 2 ***********
*set,_delta,5.64025692518155
type,11
mat,13
real,13
r,13,2.59990221762439e-003
nsel,all
*get,_nspr,ndmx
_nspr=_nspr+1
esel,s,type,,2
nsle,s,active
*get,_minx,node,0,mnloc,x
*get,_miny,node,0,mnloc,y
*get,_minz,node,0,mnloc,z
*get,_maxx,node,0,mxloc,x
*get,_maxy,node,0,mxloc,y
*get,_maxz,node,0,mxloc,z
*dim,_ntets,arra,8
_ntets(1) = NODE(_minx,_miny,_minz)
_ntets(2) = NODE(_minx,_miny,_maxz)
_ntets(3) = NODE(_minx,_maxy,_minz)
_ntets(4) = NODE(_minx,_maxy,_maxz)
_ntets(5) = NODE(_maxx,_miny,_minz)
_ntets(6) = NODE(_maxx,_miny,_maxz)
_ntets(7) = NODE(_maxx,_maxy,_minz)
_ntets(8) = NODE(_maxx,_maxy,_maxz)
*do,_i,1,8
  n,_nspr,nx(_ntets(_i))+_delta,ny(_ntets(_i)),nz(_ntets(_i))
  e,_ntets(_i),_nspr
  d,_nspr,all
  _nspr=_nspr+1
  n,_nspr,nx(_ntets(_i)),ny(_ntets(_i))+_delta,nz(_ntets(_i))
  e,_ntets(_i),_nspr
  d,_nspr,all
  _nspr=_nspr+1
  n,_nspr,nx(_ntets(_i)),ny(_ntets(_i)),nz(_ntets(_i))+_delta
  e,_ntets(_i),_nspr
  d,_nspr,all
  _nspr=_nspr+1
*enddo
*set,_ntets
nsel,all
esel,all
/com,*********** Construct Weak Springs, Prototype 3 ***********
*set,_delta,7.8620925498491
type,11
mat,14
real,14
r,14,1.06401265169531e-003
nsel,all
*get,_nspr,ndmx
_nspr=_nspr+1
esel,s,type,,3
nsle,s,active
*get,_minx,node,0,mnloc,x
*get,_miny,node,0,mnloc,y
*get,_minz,node,0,mnloc,z
*get,_maxx,node,0,mxloc,x
*get,_maxy,node,0,mxloc,y
*get,_maxz,node,0,mxloc,z
*dim,_ntets,arra,8
_ntets(1) = NODE(_minx,_miny,_minz)
_ntets(2) = NODE(_minx,_miny,_maxz)
_ntets(3) = NODE(_minx,_maxy,_minz)
_ntets(4) = NODE(_minx,_maxy,_maxz)
_ntets(5) = NODE(_maxx,_miny,_minz)
_ntets(6) = NODE(_maxx,_miny,_maxz)
_ntets(7) = NODE(_maxx,_maxy,_minz)
_ntets(8) = NODE(_maxx,_maxy,_maxz)
*do,_i,1,8
  n,_nspr,nx(_ntets(_i))+_delta,ny(_ntets(_i)),nz(_ntets(_i))
  e,_ntets(_i),_nspr
  d,_nspr,all
  _nspr=_nspr+1
  n,_nspr,nx(_ntets(_i)),ny(_ntets(_i))+_delta,nz(_ntets(_i))
  e,_ntets(_i),_nspr
  d,_nspr,all
  _nspr=_nspr+1
  n,_nspr,nx(_ntets(_i)),ny(_ntets(_i)),nz(_ntets(_i))+_delta
  e,_ntets(_i),_nspr
  d,_nspr,all
  _nspr=_nspr+1
*enddo
*set,_ntets
nsel,all
esel,all
/gst,on,on
fini
*get,_numnode,node,0,count
*get,_numelem,elem,0,count
*get, _MAXELEMNUM, elem, 0, NUM, MAX
*get, _MAXNODENUM, node, 0, NUM, MAX
*get, _MAXELEMTYPE, etyp, 0, NUM, MAX
*get, _MAXREALCONST, rcon, 0, NUM, MAX
/go
/wb,load,end               !  done creating loads
/com,--- Number of total nodes = %_numnode%
/com,--- Number of contact elements = 5471
/com,--- Number of spring elements = 72
/com,--- Number of bearing elements = 0
/com,--- Number of solid elements = 6598
/com,--- Number of condensed parts = 0
/com,--- Number of total elements = %_numelem%
*get,_wallbsol,active,,time,wall
/com,****************************************************************************
/com,*************************    SOLUTION       ********************************
/com,****************************************************************************
/solu
antype,0                   ! static analysis
_thickRatio=0.333   ! Ratio of thick parts in the model
eqsl,sparse,,,,,1
cntr,print,1               ! print out contact info and also make no initial contact an error
cncheck,dmp		!	Enable program controlled contact splitting for distributed memory parallel run
dmpoption,emat,no             ! Don't combine emat file for DANSYS
dmpoption,esav,no             ! Don't combine esav file for DANSYS
nldiag,cont,iter           ! print out contact info each equilibrium iteration
rescontrol,define,last,last,,dele	   ! Program Controlled
/com,****************************************************
/com,******************* SOLVE FOR LS 1 OF 1 ****************
esel,s,type,,10
nsle
sfe,all,1,pres,1,13.3333333333343
sfe,all,2,pres,1,0.
sfe,all,3,pres,1,0.
nsel,all
esel,all
/nopr
/gopr
autots,on                  ! Workbench Program Controlled automatic time stepping
nsub,1,10,1                ! due to presence of general nonlinear
time,1.
outres,erase
outres,all,none
outres,nsol,all,
outres,rsol,all
outres,eangl,all
outres,etmp,all
outres,veng,all
outres,strs,all,
outres,epel,all,
outres,eppl,all,
outres,cont,all,
! *********** WB SOLVE COMMAND ***********
! check interactive state
*get,ANSINTER_,active,,int
*if,ANSINTER_,ne,0,then
/eof
*endif
solve
/com *************** Write FE CONNECTORS ********* 
CEWRITE,file,ce,,INTE
/com,****************************************************
/com,*************** FINISHED SOLVE FOR LS 1 *************
*get,_wallasol,active,,time,wall
/nopr
*get,_numnode,node,0,count
*get,_numelem,elem,0,count
*get, _MAXELEMNUM, elem, 0, NUM, MAX
*get, _MAXNODENUM, node, 0, NUM, MAX,,,INTERNAL
*get, _MAXELEMTYPE, etyp, 0, NUM, MAX
*get, _MAXREALCONST, rcon, 0, NUM, MAX
*get,_NSOLTHREADS,active,0,ntfs
*get,_NSOLPROCESSES,active,0,npfs
/gopr
/post1
xmlo,ENCODING,ISO-8859-1
xmlo,parm
/xml,parm,xml
fini
/gopr
*get,_walldone,active,,time,wall
_preptime=(_wallbsol-_wallstrt)*3600
_solvtime=(_wallasol-_wallbsol)*3600
_posttime=(_walldone-_wallasol)*3600
_totaltim=(_walldone-_wallstrt)*3600
*get,_dlbratio,active,0,solu,dlbr
*get,_combtime,active,0,solu,comb
*get,_ssmode,active,0,solu,ssmm
*get,_ndofs,active,0,solu,ndof
*get,_sol_end_time,active,0,set,time
*if,_sol_end_time,eq,1.000000,then
/fclean				!clean distributed files
*endif
/com,--- Total number of nodes = %_numnode%
/com,--- Total number of elements = %_numelem%
/com,--- Element load balance ratio = %_dlbratio%
/com,--- Time to combine distributed files = %_combtime%
/com,--- Sparse memory mode = %_ssmode%
/com,--- Number of DOF = %_ndofs%
/wb,file,end               ! done with WB generated input
