/batch
/config,noeldb,1     ! force off writing results to database
*get,_wallstrt,active,,time,wall
! ANSYS input file written by Workbench version 2024 R1
! File used for geometry attach: C:\Users\mert_\AppData\Local\Temp\WB_Mert_2348_2\wbnew_files\dp0\SYS\DM\SYS.agdb
/title,wbnew--Static Structural (A5)
! ****** Begin Custom Load Command Snippet ******
/COM, ACT Extensions:
/COM,     LSDYNA, 2024.1
/COM,     5f463412-bd3e-484b-87e7-cbc0a665e474, wbex
/COM,/COM,     ANSYSMotion, 2024.1
/COM,     20180725-3f81-49eb-9f31-41364844c769, wbex
/COM,
! ****** End   Custom Load Command Snippet ******
*DIM,_wb_ProjectScratch_dir,string,248
_wb_ProjectScratch_dir(1) = 'C:\Users\mert_\AppData\Local\Temp\WB_Mert_2348_2\_ProjectScratch\ScrB780\'
*DIM,_wb_SolverFiles_dir,string,248
_wb_SolverFiles_dir(1) = 'C:\Users\mert_\AppData\Local\Temp\WB_Mert_2348_2\wbnew_files\dp0\SYS\MECH\'
*DIM,_wb_userfiles_dir,string,248
_wb_userfiles_dir(1) = 'C:\Users\mert_\AppData\Local\Temp\WB_Mert_2348_2\wbnew_files\user_files\'
/com,--- Data in consistent NMM units. See Solving Units in the help system for more information.
/units,MPA
/nopr
/wb,file,start              !  signify a WB generated input file
/prep7
! Turn off shape checking because checks already performed inside WB mesher.
! See help system for more information.
SHPP,OFF,,NOWARN
/nolist
etcon,set             ! allow ANSYS to choose best KEYOP's for 180x elements, resets any applicable keyopt to MAPDL defaults
/com,*********** Nodes for the whole assembly ***********
nblock,3,,62
(1i9,3e20.9e3)
        1     0.000000000E+00     0.000000000E+00     0.000000000E+00
        2     4.000000000E+02     0.000000000E+00     0.000000000E+00
        3     2.500000000E+01     0.000000000E+00     0.000000000E+00
        4     5.000000000E+01     0.000000000E+00     0.000000000E+00
        5     7.500000000E+01     0.000000000E+00     0.000000000E+00
        6     1.000000000E+02     0.000000000E+00     0.000000000E+00
        7     1.250000000E+02     0.000000000E+00     0.000000000E+00
        8     1.500000000E+02     0.000000000E+00     0.000000000E+00
        9     1.750000000E+02     0.000000000E+00     0.000000000E+00
       10     2.000000000E+02     0.000000000E+00     0.000000000E+00
       11     2.250000000E+02     0.000000000E+00     0.000000000E+00
       12     2.500000000E+02     0.000000000E+00     0.000000000E+00
       13     2.750000000E+02     0.000000000E+00     0.000000000E+00
       14     3.000000000E+02     0.000000000E+00     0.000000000E+00
       15     3.250000000E+02     0.000000000E+00     0.000000000E+00
       16     3.500000000E+02     0.000000000E+00     0.000000000E+00
       17     3.750000000E+02     0.000000000E+00     0.000000000E+00
       18     7.000000000E+02     0.000000000E+00     0.000000000E+00
       19     4.250000000E+02     0.000000000E+00     0.000000000E+00
       20     4.500000000E+02     0.000000000E+00     0.000000000E+00
! ... 38 like lines cut
/wb,elem,start            !  set before creation of elements
/com,*********** Elements for Body 1 "L1" ***********
et,1,188
keyo,1,3,2
eblock,19,solid,,16
(19i9)
        1        1        1        1        0        0        0        0        3        0        1        1        3       30
        1        1        1        1        0        0        0        0        3        0        2        3        4       31
        1        1        1        1        0        0        0        0        3        0        3        4        5       32
        1        1        1        1        0        0        0        0        3        0        4        5        6       33
        1        1        1        1        0        0        0        0        3        0        5        6        7       34
        1        1        1        1        0        0        0        0        3        0        6        7        8       35
        1        1        1        1        0        0        0        0        3        0        7        8        9       36
        1        1        1        1        0        0        0        0        3        0        8        9       10       37
        1        1        1        1        0        0        0        0        3        0        9       10       11       38
        1        1        1        1        0        0        0        0        3        0       10       11       12       39
        1        1        1        1        0        0        0        0        3        0       11       12       13       40
        1        1        1        1        0        0        0        0        3        0       12       13       14       41
        1        1        1        1        0        0        0        0        3        0       13       14       15       42
        1        1        1        1        0        0        0        0        3        0       14       15       16       43
        1        1        1        1        0        0        0        0        3        0       15       16       17       44
        1        1        1        1        0        0        0        0        3        0       16       17        2       45
-1
!Material Id = {9DBE0E9F-367D-47BD-BC60-AEC1E4A7FAC9}
/com,*********** Elements for Body 2 "L2" ***********
et,2,188
keyo,2,3,2
eblock,19,solid,,12
(19i9)
        2        2        2        2        0        0        0        0        3        0       17        2       19       46
        2        2        2        2        0        0        0        0        3        0       18       19       20       47
        2        2        2        2        0        0        0        0        3        0       19       20       21       48
        2        2        2        2        0        0        0        0        3        0       20       21       22       49
        2        2        2        2        0        0        0        0        3        0       21       22       23       50
        2        2        2        2        0        0        0        0        3        0       22       23       24       51
        2        2        2        2        0        0        0        0        3        0       23       24       25       52
        2        2        2        2        0        0        0        0        3        0       24       25       26       53
        2        2        2        2        0        0        0        0        3        0       25       26       27       54
        2        2        2        2        0        0        0        0        3        0       26       27       28       55
        2        2        2        2        0        0        0        0        3        0       27       28       29       56
        2        2        2        2        0        0        0        0        3        0       28       29       18       57
-1
!Material Id = {E821AAB3-28C9-43FF-8D0A-89F4FDC3714F}
/wb,elem,end               !  done creating elements
/com,*********** Send User Defined Coordinate System(s) ***********
csys,0
toffst,273.15,  ! Temperature offset from absolute zero
/com,*********** Set Reference Temperature ***********
tref,22.
/wb,mat,start              !  starting to send materials
/com,*********** Send Materials ***********
Temperature = 'TEMP' ! Temperature
MP,DENS,1,7.85e-09,	! tonne mm^-3
MP,ALPX,1,1.2e-05,	! C^-1
MP,C,1,434000000,	! mm^2 s^-2 C^-1
MP,KXX,1,60.5,	! tonne mm s^-3 C^-1
MP,RSVX,1,0.00017,	! ohm mm
MP,EX,1,200000,	! tonne s^-2 mm^-1
MP,NUXY,1,0.3,
MP,MURX,1,10000,
MP,UVID,1,b6abf957-b184-4f2c-86f8-6991148f9737
MP,UMID,1,59002a79-71c2-428e-906b-55d7dbee100e

Temperature = 'TEMP' ! Temperature
MP,DENS,2,2.77e-09,	! tonne mm^-3
MP,ALPX,2,2.3e-05,	! C^-1
MP,C,2,875000000,	! mm^2 s^-2 C^-1
MPTEMP,,,,,,,,
MPTEMP,1,-100
MPTEMP,2,0
MPTEMP,3,100
MPTEMP,4,200
MPDATA,KXX,2, ,114,144,165,175,	! tonne mm s^-3 C^-1
MPTEMP,,,,,,,,
MPTEMP,,,,,,,,
MPTEMP,1,0
MPTEMP,2,20
MPTEMP,3,100
MPDATA,RSVX,2, ,2.43e-05,2.67e-05,3.63e-05,	! ohm mm
MPTEMP,,,,,,,,
MP,EX,2,71000,	! tonne s^-2 mm^-1
MP,NUXY,2,0.33,
MP,MURX,2,1,
MP,UVID,2,7e0a0fc8-273d-4f5f-aff4-5556f7e83c23
MP,UMID,2,35d48138-be0c-4a97-839b-6fba81b9f834

/wb,mat,end                !  done sending materials
/com,*********** Send Beam Properties ***********
SECTYPE,1,BEAM,CSOL
SECDATA,20.
secoffset,cent

SECTYPE,2,BEAM,CSOL
SECDATA,10.
secoffset,cent

!************************* Model Summary ********************
!L1,	Structural Steel,	matid,	1
!L2,	Aluminum Alloy,	matid,	2
!************************* End Model Summary ********************
! get the diagonal of the bounding box. Needed later for other things
*get,_xmin,node,,mnloc,x
*get,_ymin,node,,mnloc,y
*get,_zmin,node,,mnloc,z
*get,_xmax,node,,mxloc,x
*get,_ymax,node,,mxloc,y
*get,_zmax,node,,mxloc,z
_ASMDIAG=(_xmax-_xmin)*(_xmax-_xmin)+(_ymax-_ymin)*(_ymax-_ymin)+(_zmax-_zmin)*(_zmax-_zmin)
_ASMDIAG=SQRT(_ASMDIAG)
/wb,contact,start          !  starting to send contact
/wb,contact,end            !  done creating contacts
/golist
/wb,load,start             !  starting to send loads
/com,*********** Fixed Supports ***********
CMBLOCK,_FIXEDSU,NODE,        2
(8i10)
         1        18
cmsel,s,_FIXEDSU
d,all,all
nsel,all
/com,*********** Define Vertex Force Using Follower Elements ***********
et,3,201
keyo,3,1,1           ! Keep the direction constant
keyo,3,2,1           ! Apply Forces only, not moment
mat,3
real,3
type,3
en,29,2
r,3
rmod,3,1,1.0,              ! FX
mat,4
real,4
type,3
en,30,2
r,4
rmod,4,2,1.0,              ! FY
mat,5
real,5
type,3
en,31,2
r,5
rmod,5,3,1.0,              ! FZ
et,6,14             ! spring element type
/com,*********** Construct Weak Springs, Prototype 1 ***********
*set,_delta,20.0000002980232
type,6
mat,7
real,7
r,7,5.e-003
nsel,all
*get,_nspr,ndmx
_nspr=_nspr+1
esel,s,type,,1
nsle,s,active
*get,_minx,node,0,mnloc,x
*get,_miny,node,0,mnloc,y
*get,_minz,node,0,mnloc,z
*get,_maxx,node,0,mxloc,x
*get,_maxy,node,0,mxloc,y
*get,_maxz,node,0,mxloc,z
*dim,_ntets,arra,8
_ntets(1) = NODE(_minx,_miny,_minz)
_ntets(2) = NODE(_minx,_miny,_maxz)
_ntets(3) = NODE(_minx,_maxy,_minz)
_ntets(4) = NODE(_minx,_maxy,_maxz)
_ntets(5) = NODE(_maxx,_miny,_minz)
_ntets(6) = NODE(_maxx,_miny,_maxz)
_ntets(7) = NODE(_maxx,_maxy,_minz)
_ntets(8) = NODE(_maxx,_maxy,_maxz)
*do,_i,1,8
  n,_nspr,nx(_ntets(_i))+_delta,ny(_ntets(_i)),nz(_ntets(_i))
  e,_ntets(_i),_nspr
  d,_nspr,all
  _nspr=_nspr+1
  n,_nspr,nx(_ntets(_i)),ny(_ntets(_i))+_delta,nz(_ntets(_i))
  e,_ntets(_i),_nspr
  d,_nspr,all
  _nspr=_nspr+1
  n,_nspr,nx(_ntets(_i)),ny(_ntets(_i)),nz(_ntets(_i))+_delta
  e,_ntets(_i),_nspr
  d,_nspr,all
  _nspr=_nspr+1
*enddo
*set,_ntets
nsel,all
esel,all
/com,*********** Construct Weak Springs, Prototype 2 ***********
*set,_delta,14.9999991059303
type,6
mat,8
real,8
r,8,1.775e-003
nsel,all
*get,_nspr,ndmx
_nspr=_nspr+1
esel,s,type,,2
nsle,s,active
*get,_minx,node,0,mnloc,x
*get,_miny,node,0,mnloc,y
*get,_minz,node,0,mnloc,z
*get,_maxx,node,0,mxloc,x
*get,_maxy,node,0,mxloc,y
*get,_maxz,node,0,mxloc,z
*dim,_ntets,arra,8
_ntets(1) = NODE(_minx,_miny,_minz)
_ntets(2) = NODE(_minx,_miny,_maxz)
_ntets(3) = NODE(_minx,_maxy,_minz)
_ntets(4) = NODE(_minx,_maxy,_maxz)
_ntets(5) = NODE(_maxx,_miny,_minz)
_ntets(6) = NODE(_maxx,_miny,_maxz)
_ntets(7) = NODE(_maxx,_maxy,_minz)
_ntets(8) = NODE(_maxx,_maxy,_maxz)
*do,_i,1,8
  n,_nspr,nx(_ntets(_i))+_delta,ny(_ntets(_i)),nz(_ntets(_i))
  e,_ntets(_i),_nspr
  d,_nspr,all
  _nspr=_nspr+1
  n,_nspr,nx(_ntets(_i)),ny(_ntets(_i))+_delta,nz(_ntets(_i))
  e,_ntets(_i),_nspr
  d,_nspr,all
  _nspr=_nspr+1
  n,_nspr,nx(_ntets(_i)),ny(_ntets(_i)),nz(_ntets(_i))+_delta
  e,_ntets(_i),_nspr
  d,_nspr,all
  _nspr=_nspr+1
*enddo
*set,_ntets
nsel,all
esel,all
/gst,on,on
fini
*get,_numnode,node,0,count
*get,_numelem,elem,0,count
*get, _MAXELEMNUM, elem, 0, NUM, MAX
*get, _MAXNODENUM, node, 0, NUM, MAX
*get, _MAXELEMTYPE, etyp, 0, NUM, MAX
*get, _MAXREALCONST, rcon, 0, NUM, MAX
/go
/wb,load,end               !  done creating loads
/com,--- Number of total nodes = %_numnode%
/com,--- Number of contact elements = 0
/com,--- Number of spring elements = 48
/com,--- Number of bearing elements = 0
/com,--- Number of solid elements = 28
/com,--- Number of condensed parts = 0
/com,--- Number of total elements = %_numelem%
*get,_wallbsol,active,,time,wall
/com,****************************************************************************
/com,*************************    SOLUTION       ********************************
/com,****************************************************************************
/solu
antype,0                   ! static analysis
_thickRatio=  0     ! Ratio of thick parts in the model
eqsl,sparse,,,,,1
cntr,print,1               ! print out contact info and also make no initial contact an error
cncheck,dmp		!	Enable program controlled contact splitting for distributed memory parallel run
dmpoption,emat,no             ! Don't combine emat file for DANSYS
dmpoption,esav,no             ! Don't combine esav file for DANSYS
nldiag,cont,iter           ! print out contact info each equilibrium iteration
rescontrol,,none                 ! Do not keep any restart files
/com,****************************************************
/com,******************* SOLVE FOR LS 1 OF 1 ****************
esel,s,real,,3
sfe,all,1,pres,1,20000.
esel,s,real,,4
sfe,all,1,pres,1,0.
esel,s,real,,5
sfe,all,1,pres,1,0.
esel,all
/nopr
/gopr
nsub,1,1,1
time,1.
outres,erase
outres,all,none
outres,nsol,all,
outres,rsol,all
outres,eangl,all
outres,etmp,all
outres,veng,all
outres,strs,all,
outres,epel,all,
outres,eppl,all,
outres,cont,all,
/nopr
esel,s,type,,1
esel,a,type,,2
cm,_elmisc,elem
esel,all
/gopr
outres,misc,all,_elmisc
! *********** WB SOLVE COMMAND ***********
! check interactive state
*get,ANSINTER_,active,,int
*if,ANSINTER_,ne,0,then
/eof
*endif
solve
/com *************** Write FE CONNECTORS ********* 
CEWRITE,file,ce,,INTE
/com,****************************************************
/com,*************** FINISHED SOLVE FOR LS 1 *************
*get,_wallasol,active,,time,wall
/nopr
*get,_numnode,node,0,count
*get,_numelem,elem,0,count
*get, _MAXELEMNUM, elem, 0, NUM, MAX
*get, _MAXNODENUM, node, 0, NUM, MAX,,,INTERNAL
*get, _MAXELEMTYPE, etyp, 0, NUM, MAX
*get, _MAXREALCONST, rcon, 0, NUM, MAX
*get,_NSOLTHREADS,active,0,ntfs
*get,_NSOLPROCESSES,active,0,npfs
/gopr
/post1
xmlo,ENCODING,ISO-8859-1
xmlo,parm
/xml,parm,xml
fini
/gopr
*get,_walldone,active,,time,wall
_preptime=(_wallbsol-_wallstrt)*3600
_solvtime=(_wallasol-_wallbsol)*3600
_posttime=(_walldone-_wallasol)*3600
_totaltim=(_walldone-_wallstrt)*3600
*get,_dlbratio,active,0,solu,dlbr
*get,_combtime,active,0,solu,comb
*get,_ssmode,active,0,solu,ssmm
*get,_ndofs,active,0,solu,ndof
*get,_sol_end_time,active,0,set,time
*if,_sol_end_time,eq,1.000000,then
/fclean				!clean distributed files
*endif
/com,--- Total number of nodes = %_numnode%
/com,--- Total number of elements = %_numelem%
/com,--- Element load balance ratio = %_dlbratio%
/com,--- Time to combine distributed files = %_combtime%
/com,--- Sparse memory mode = %_ssmode%
/com,--- Number of DOF = %_ndofs%
/wb,file,end               ! done with WB generated input
